** written by FreeCAD inp file writer for CalculiX,Abaqus meshes
** highest dimension mesh elements only.

** Nodes
*Node, NSET=Nall
1, 10.6066017178, -12.02081528017, -9
2, 12.02081528017, -10.6066017178, -9
3, 12.02081528017, -10.6066017178, -11
4, 10.6066017178, -12.02081528017, -11
5, -10.6066017178, 12.02081528017, -11
6, -12.02081528017, 10.6066017178, -11
7, -12.02081528017, 10.6066017178, -9
8, -10.6066017178, 12.02081528017, -9
9, -10.11709679771, 10.810246352, -4.444344385582
10, -10.8242035789, 10.10313957081, -4.444344385582
11, 10.10313957081, -10.8242035789, -4.444344385582
12, 10.810246352, -10.11709679771, -4.444344385582
13, -48.70288157007, 2.5, -7
14, -48.70288157007, 2.5, -9
15, -48.03300858899, -1, -7
16, -48.13402910342, -1, -7
17, -48.13402910342, -1, -9
18, -48.03300858899, -1, -9
19, -48.03300858899, 1, -7
20, -48.13402910342, 1, -7
** ... 29932 like lines cut


** Volume elements
*Element, TYPE=C3D4, ELSET=Evolumes
66076, 17775, 17776, 3711, 17441
66077, 24813, 29664, 25313, 29665
66078, 14950, 15145, 27744, 27673
66079, 4239, 13903, 4100, 597
66080, 26275, 17622, 17497, 17498
66081, 29776, 22297, 22446, 22298
66082, 18793, 3588, 28689, 18768
66083, 22796, 29634, 23068, 23069
66084, 16569, 16568, 16605, 28411
66085, 15093, 28528, 5166, 5165
66086, 26528, 17876, 26682, 22416
66087, 10590, 10140, 10124, 10564
66088, 25274, 25439, 29504, 29635
66089, 22404, 22405, 26636, 22444
66090, 12886, 12397, 12862, 12398
66091, 22405, 29780, 26636, 22444
66092, 16383, 16396, 28530, 28148
66093, 22405, 26659, 26636, 29780
66094, 16008, 16009, 26849, 27040
66095, 23951, 23952, 29507, 29636
** ... 86197 like lines cut

** Define element set Eall
*ELSET, ELSET=Eall
Evolumes



***********************************************************
** Element sets for materials and FEM element type (solid, shell, beam, fluid)
*ELSET,ELSET=MaterialSolidSolid
Evolumes

***********************************************************
** constraints fixed node sets
** ConstraintFixed
*NSET,NSET=ConstraintFixed
608,
611,
612,
613,
5577,
5578,
5579,
5580,
5581,
5582,
5583,
5584,
5585,
5586,
5587,
5588,
5589,
5590,
5591,
5592,
** ... 335 like lines cut

** Physical constants for SI(mm) unit system with Kelvins
*PHYSICAL CONSTANTS, ABSOLUTE ZERO=0, STEFAN BOLTZMANN=5.670374419e-11

***********************************************************
** Materials
** see information about units at file end
** FreeCAD material name: PA12-CF
** MaterialSolid001
*MATERIAL, NAME=MaterialSolid
*ELASTIC
3300,0.35
*EXPANSION, ZERO=0
8.2E-05

***********************************************************
** Sections
*SOLID SECTION, ELSET=MaterialSolidSolid, MATERIAL=MaterialSolid

***********************************************************
** At least one step is needed to run an CalculiX analysis of FreeCAD
*STEP, INC=2000
*STATIC
1.0,1.0,1e-05,1.0

***********************************************************
** Fixed Constraints
** ConstraintFixed
*BOUNDARY
ConstraintFixed,1
ConstraintFixed,2
ConstraintFixed,3


***********************************************************
** constraints force node loads
** ConstraintForce
*CLOAD
** node loads on shape: Part__Feature004:Face14
571,2,-0.1223856028538
572,2,-0.1151880129869
573,2,-0.1138866026556
574,2,-0.1071888454183
6586,2,-0.3169574478714
6587,2,-0.2688027470063
6588,2,-0.2999973445437
6589,2,-0.3113997901885
6590,2,-0.3137863765407
6591,2,-0.3184718302061
6592,2,-0.3352622705521
6593,2,-0.3443230189289
6594,2,-0.3547436580587
6595,2,-0.3845841992103
6596,2,-0.3879721391485
6597,2,-0.4095476183308
6598,2,-0.4204289608887
6599,2,-0.3498707271257
6600,2,-0.3267870665834
6601,2,-0.2711678489221
** ... 347 like lines cut



***********************************************************
** Outputs --> frd file
*NODE FILE
U
*EL FILE
S, E
** outputs --> dat file
** reaction forces for Constraint fixed
*NODE PRINT, NSET=ConstraintFixed, TOTALS=ONLY
RF

*OUTPUT, FREQUENCY=1
***********************************************************
*END STEP

***********************************************************
** CalculiX Input file
**   written by    --> FreeCAD 1.1.1
**   written on    --> Thu May 21 22:36:12 2026
**   file name     --> drone.FCStd
**   analysis name --> Analysis
**
**
***********************************************************
**  About units:
**  See ccx manual, ccx does not know about any unit.
**  Golden rule: The user must make sure that the numbers they provide have consistent units.
**  The user is the FreeCAD calculix writer module ;-)
**
**  The unit system which is used at Guido Dhondt's company: mm, N, s, K
**  Since Length and Mass are connected by Force, if Length is mm the Mass is in t to get N
**  The following units are used to write to inp file:
**
**  Length: mm (this includes the mesh geometry)
**  Mass: t
**  TimeSpan: s
**  Temperature: K
**
**  This leads to:
**  Force: N
**  Pressure: N/mm^2 == MPa (Young's Modulus has unit Pressure)
**  Density: t/mm^3
**  Gravity: mm/s^2
**  Thermal conductivity: t*mm/K/s^3 == as W/m/K == kW/mm/K
**  Specific Heat: mm^2/s^2/K = J/kg/K == kJ/t/K
**
